tests/data/state_estimation/inf-measurement-with-injection-measured-unmeasured-appliances/asym_output.json
{
  "version": "1.0",
  "type": "asym_output",
  "is_batch": false,
  "attributes": {},
  "data": {
    "node": [
      {
        "id": 1,
        "energized": 1,
        "u_pu": [
          1,
          0.9999999999999999,
          0.9999999999999999
        ],
        "u": [
          5773.502691896258,
          5773.502691896257,
          5773.502691896257
        ],
        "u_angle": [
          0,
          -2.0943951023931957,
          2.0943951023931957
        ],
        "p": [
          400.0004848307981,
          400.00048485464004,
          400.0004848153082
        ],
        "q": [
          40.000969609839856,
          40.00096963895253,
          40.00096961095625
        ]
      },
      {
        "id": 2,
        "energized": 1,
        "u_pu": [
          0.9999985599953274,
          0.9999985599953267,
          0.9999985599953272
        ],
        "u": [
          5773.494378025404,
          5773.4943780254,
          5773.4943780254025
        ],
        "u_angle": [
          -2.28000328312611e-06,
          -2.094397382396479,
          2.094392822389912
        ],
        "p": [
          -400.00000002940186,
          -400.00000005324364,
          -400.0000000139121
        ],
        "q": [
          -40.00000000704736,
          -40.000000036159726,
          -40.000000008163674
        ]
      }
    ],
    "line": [
      {
        "id": 3,
        "energized": 1,
        "p_from": [
          400.0004848307981,
          400.00048485464004,
          400.0004848153082
        ],
        "q_from": [
          40.000969609839856,
          40.00096963895253,
          40.00096961095625
        ],
        "i_from": [
          0.0696276810114916,
          0.06962768101610241,
          0.06962768100884124
        ],
        "s_from": [
          401.9956037503406,
          401.9956037769611,
          401.9956037350387
        ],
        "p_to": [
          -400.00000002940186,
          -400.00000005324364,
          -400.0000000139121
        ],
        "q_to": [
          -40.00000000704736,
          -40.000000036159726,
          -40.000000008163674
        ],
        "i_to": [
          0.0696276810114916,
          0.06962768101610241,
          0.06962768100884124
        ],
        "s_to": [
          401.99502487479276,
          401.99502490141305,
          401.9950248594909
        ]
      }
    ],
    "source": [
      {
        "id": 4,
        "energized": 1,
        "p": [
          400.0004848307981,
          400.00048485464004,
          400.0004848153082
        ],
        "q": [
          40.000969609839856,
          40.00096963895253,
          40.00096961095625
        ],
        "i": [
          0.0696276810114916,
          0.06962768101610241,
          0.06962768100884124
        ],
        "s": [
          401.9956037503406,
          401.9956037769611,
          401.9956037350387
        ],
        "pf": [
          0.9950369633375852,
          0.995036963331002,
          0.9950369633369287
        ]
      }
    ],
    "asym_load": [
      {
        "id": 6,
        "energized": 1,
        "p": [
          666.6666666960684,
          666.6666667199103,
          666.6666666805787
        ],
        "q": [
          66.66666667371402,
          66.66666670282639,
          66.66666667483034
        ],
        "i": [
          0.11604613501569351,
          0.11604613502030431,
          0.11604613501304316
        ],
        "s": [
          669.9917081046832,
          669.9917081313034,
          669.9917080893814
        ],
        "pf": [
          0.9950371902093821,
          0.9950371902054324,
          0.9950371902089882
        ]
      }
    ],
    "asym_gen": [
      {
        "id": 17,
        "energized": 1,
        "p": [
          266.66666666666663,
          266.66666666666663,
          266.66666666666663
        ],
        "q": [
          26.666666666666664,
          26.666666666666664,
          26.666666666666664
        ],
        "i": [
          0.046418454004201894,
          0.04641845400420193,
          0.046418454004201894
        ],
        "s": [
          267.9966832298903,
          267.9966832298903,
          267.9966832298903
        ],
        "pf": [
          0.9950371902099893,
          0.9950371902099893,
          0.9950371902099893
        ]
      }
    ],
    "sym_voltage_sensor": [
      {
        "id": 11,
        "energized": 1,
        "u_residual": [
          0,
          6.409875621278546e-13,
          6.409875621278546e-13
        ],
        "u_angle_residual": [
          0,
          2.0943951023931957,
          -2.0943951023931957
        ]
      }
    ],
    "sym_power_sensor": [
      {
        "id": 12,
        "energized": 1,
        "p_residual": [
          2.9401900474475735e-08,
          5.324372308786647e-08,
          1.391212087660983e-08
        ],
        "q_residual": [
          7.047368331264403e-09,
          3.615973261557788e-08,
          8.163680958091685e-09
        ]
      },
      {
        "id": 15,
        "energized": 1,
        "p_residual": [
          -666.6666666960684,
          -666.6666667199103,
          -666.6666666805787
        ],
        "q_residual": [
          -66.66666667371402,
          -66.66666670282639,
          -66.66666667483034
        ]
      },
      {
        "id": 16,
        "energized": 1,
        "p_residual": [
          0,
          0,
          0
        ],
        "q_residual": [
          0,
          0,
          0
        ]
      }
    ]
  }
}
