tests/data/state_estimation/inf-measurement-with-injection-measured-unmeasured-appliances/sym_output.json
{
  "version": "1.0",
  "type": "sym_output",
  "is_batch": false,
  "attributes": {},
  "data": {
    "node": [
      {
        "id": 1,
        "energized": 1,
        "u_pu": 1,
        "u": 10000,
        "u_angle": 0,
        "p": 1200.0014543787074,
        "q": 120.00290877267616
      },
      {
        "id": 2,
        "energized": 1,
        "u_pu": 0.9999985599953274,
        "u": 9999.985599953274,
        "u_angle": -2.2800032832191506e-06,
        "p": -1199.9999999745187,
        "q": -119.99999996429891
      }
    ],
    "line": [
      {
        "id": 3,
        "energized": 1,
        "p_from": 1200.0014543787074,
        "q_from": 120.00290877267616,
        "i_from": 0.06962768100463389,
        "s_from": 1205.986811132243,
        "p_to": -1199.9999999745187,
        "q_to": -119.99999996429891,
        "i_to": 0.06962768100463389,
        "s_to": 1205.9850745055996
      }
    ],
    "source": [
      {
        "id": 4,
        "energized": 1,
        "p": 1200.0014543787074,
        "q": 120.00290877267616,
        "i": 0.06962768100463389,
        "s": 1205.986811132243,
        "pf": 0.9950369633413186
      }
    ],
    "asym_load": [
      {
        "id": 6,
        "energized": 1,
        "p": 1999.9999999745187,
        "q": 199.9999999642989,
        "i": 0.11604613500883577,
        "s": 2009.9751241952706,
        "pf": 0.9950371902116223
      }
    ],
    "asym_gen": [
      {
        "id": 17,
        "energized": 1,
        "p": 799.9999999999999,
        "q": 80,
        "i": 0.04641845400420189,
        "s": 803.9900496896711,
        "pf": 0.9950371902099892
      }
    ],
    "sym_voltage_sensor": [
      {
        "id": 11,
        "energized": 1,
        "u_residual": 0,
        "u_angle_residual": 0
      }
    ],
    "sym_power_sensor": [
      {
        "id": 12,
        "energized": 1,
        "p_residual": -2.5481136298188822e-08,
        "q_residual": -3.570108347405315e-08
      },
      {
        "id": 15,
        "energized": 1,
        "p_residual": -1999.9999999745187,
        "q_residual": -199.9999999642989
      },
      {
        "id": 16,
        "energized": 1,
        "p_residual": 0,
        "q_residual": 0
      }
    ]
  }
}
